# Mol2 file generated by Materials Studio
@<TRIPOS>MOLECULE
structure
138 190 0 0 0 
SMALL
USER_CHARGES


@<TRIPOS>ATOM
1 C 2.05662 -0.0603005 29.0989 C.ar 0 **** 0
2 C 4.18662 -0.0603005 27.8692 C.ar 0 **** 0
3 C 3.47662 -0.0603005 29.0989 C.ar 0 **** 0
4 C 1.34663 -0.0603005 27.8692 C.ar 0 **** 0
5 C 2.05662 -0.0603005 26.6394 C.ar 0 **** 0
6 C 4.18662 -0.0603005 25.4096 C.ar 0 **** 0
7 C 3.47662 -0.0603005 26.6394 C.ar 0 **** 0
8 C 1.34663 -0.0603005 25.4096 C.ar 0 **** 0
9 C 2.05662 -0.0603005 24.1799 C.ar 0 **** 0
10 C 4.18662 -0.0603005 22.9501 C.ar 0 **** 0
11 C 3.47662 -0.0603005 24.1799 C.ar 0 **** 0
12 C 1.34663 -0.0603005 22.9501 C.ar 0 **** 0
13 C 2.05662 -0.0603005 21.7204 C.ar 0 **** 0
14 C 4.18662 -0.0603005 20.4906 C.ar 0 **** 0
15 C 3.47662 -0.0603005 21.7204 C.ar 0 **** 0
16 C 1.34663 -0.0603005 20.4906 C.ar 0 **** 0
17 C 2.05662 -0.0603005 19.2609 C.ar 0 **** 0
18 C 4.18662 -0.0603005 18.0311 C.ar 0 **** 0
19 C 3.47662 -0.0603005 19.2609 C.ar 0 **** 0
20 C 1.34663 -0.0603005 18.0311 C.ar 0 **** 0
21 C 2.05662 -0.0603005 16.8014 C.ar 0 **** 0
22 C 4.18662 -0.0603005 15.5716 C.ar 0 **** 0
23 C 3.47662 -0.0603005 16.8014 C.ar 0 **** 0
24 C 1.34663 -0.0603005 15.5716 C.ar 0 **** 0
25 C 2.05662 -0.0603005 14.3419 C.ar 0 **** 0
26 C 4.18662 -0.0603005 13.1121 C.ar 0 **** 0
27 C 3.47662 -0.0603005 14.3419 C.ar 0 **** 0
28 C 1.34663 -0.0603005 13.1121 C.ar 0 **** 0
29 C 2.05662 -0.0603005 11.8824 C.ar 0 **** 0
30 C 4.18662 -0.0603005 10.6526 C.ar 0 **** 0
31 C 3.47662 -0.0603005 11.8824 C.ar 0 **** 0
32 C 1.34663 -0.0603005 10.6526 C.ar 0 **** 0
33 C 2.05662 -0.0603005 9.42285 C.ar 0 **** 0
34 C 4.18662 -0.0603005 8.1931 C.ar 0 **** 0
35 C 3.47662 -0.0603005 9.42285 C.ar 0 **** 0
36 C 1.34663 -0.0603005 8.1931 C.ar 0 **** 0
37 C 2.05662 -0.0603005 6.96335 C.ar 0 **** 0
38 C 4.18662 -0.0603005 5.73359 C.ar 0 **** 0
39 C 3.47662 -0.0603005 6.96335 C.ar 0 **** 0
40 C 1.34663 -0.0603005 5.73359 C.ar 0 **** 0
41 C 2.05662 -0.0603005 4.50384 C.ar 0 **** 0
42 C 4.18662 -0.0603005 3.27409 C.ar 0 **** 0
43 C 3.47662 -0.0603005 4.50384 C.ar 0 **** 0
44 C 1.34663 -0.0603005 3.27409 C.ar 0 **** 0
45 C 6.31662 -0.0603005 29.0989 C.ar 0 **** 0
46 C 8.44661 -0.0603005 27.8692 C.ar 0 **** 0
47 C 7.73661 -0.0603005 29.0989 C.ar 0 **** 0
48 C 5.60662 -0.0603005 27.8692 C.ar 0 **** 0
49 C 6.31662 -0.0603005 26.6394 C.ar 0 **** 0
50 C 8.44661 -0.0603005 25.4096 C.ar 0 **** 0
51 C 7.73661 -0.0603005 26.6394 C.ar 0 **** 0
52 C 5.60662 -0.0603005 25.4096 C.ar 0 **** 0
53 C 6.31662 -0.0603005 24.1799 C.ar 0 **** 0
54 C 8.44661 -0.0603005 22.9501 C.ar 0 **** 0
55 C 7.73661 -0.0603005 24.1799 C.ar 0 **** 0
56 C 5.60662 -0.0603005 22.9501 C.ar 0 **** 0
57 C 6.31662 -0.0603005 21.7204 C.ar 0 **** 0
58 C 8.44661 -0.0603005 20.4906 C.ar 0 **** 0
59 C 7.73661 -0.0603005 21.7204 C.ar 0 **** 0
60 C 5.60662 -0.0603005 20.4906 C.ar 0 **** 0
61 C 6.31662 -0.0603005 19.2609 C.ar 0 **** 0
62 C 8.44661 -0.0603005 18.0311 C.ar 0 **** 0
63 C 7.73661 -0.0603005 19.2609 C.ar 0 **** 0
64 C 5.60662 -0.0603005 18.0311 C.ar 0 **** 0
65 C 6.31662 -0.0603005 16.8014 C.ar 0 **** 0
66 C 8.44661 -0.0603005 15.5716 C.ar 0 **** 0
67 C 7.73661 -0.0603005 16.8014 C.ar 0 **** 0
68 C 5.60662 -0.0603005 15.5716 C.ar 0 **** 0
69 C 6.31662 -0.0603005 14.3419 C.ar 0 **** 0
70 C 8.44661 -0.0603005 13.1121 C.ar 0 **** 0
71 C 7.73661 -0.0603005 14.3419 C.ar 0 **** 0
72 C 5.60662 -0.0603005 13.1121 C.ar 0 **** 0
73 C 6.31662 -0.0603005 11.8824 C.ar 0 **** 0
74 C 8.44661 -0.0603005 10.6526 C.ar 0 **** 0
75 C 7.73661 -0.0603005 11.8824 C.ar 0 **** 0
76 C 5.60662 -0.0603005 10.6526 C.ar 0 **** 0
77 C 6.31662 -0.0603005 9.42285 C.ar 0 **** 0
78 C 8.44661 -0.0603005 8.1931 C.ar 0 **** 0
79 C 7.73661 -0.0603005 9.42285 C.ar 0 **** 0
80 C 5.60662 -0.0603005 8.1931 C.ar 0 **** 0
81 C 6.31662 -0.0603005 6.96335 C.ar 0 **** 0
82 C 8.44661 -0.0603005 5.73359 C.ar 0 **** 0
83 C 7.73661 -0.0603005 6.96335 C.ar 0 **** 0
84 C 5.60662 -0.0603005 5.73359 C.ar 0 **** 0
85 C 6.31662 -0.0603005 4.50384 C.ar 0 **** 0
86 C 8.44661 -0.0603005 3.27409 C.ar 0 **** 0
87 C 7.73661 -0.0603005 4.50384 C.ar 0 **** 0
88 C 5.60662 -0.0603005 3.27409 C.ar 0 **** 0
89 C 10.5766 -0.0603005 29.0989 C.ar 0 **** 0
90 C 12.7066 -0.0603005 27.8692 C.ar 0 **** 0
91 C 11.9966 -0.0603005 29.0989 C.ar 0 **** 0
92 C 9.86661 -0.0603005 27.8692 C.ar 0 **** 0
93 C 10.5766 -0.0603005 26.6394 C.ar 0 **** 0
94 C 12.7066 -0.0603005 25.4096 C.ar 0 **** 0
95 C 11.9966 -0.0603005 26.6394 C.ar 0 **** 0
96 C 9.86661 -0.0603005 25.4096 C.ar 0 **** 0
97 C 10.5766 -0.0603005 24.1799 C.ar 0 **** 0
98 C 12.7066 -0.0603005 22.9501 C.ar 0 **** 0
99 C 11.9966 -0.0603005 24.1799 C.ar 0 **** 0
100 C 9.86661 -0.0603005 22.9501 C.ar 0 **** 0
101 C 10.5766 -0.0603005 21.7204 C.ar 0 **** 0
102 C 12.7066 -0.0603005 20.4906 C.ar 0 **** 0
103 C 11.9966 -0.0603005 21.7204 C.ar 0 **** 0
104 C 9.86661 -0.0603005 20.4906 C.ar 0 **** 0
105 C 10.5766 -0.0603005 19.2609 C.ar 0 **** 0
106 C 12.7066 -0.0603005 18.0311 C.ar 0 **** 0
107 C 11.9966 -0.0603005 19.2609 C.ar 0 **** 0
108 C 9.86661 -0.0603005 18.0311 C.ar 0 **** 0
109 C 10.5766 -0.0603005 16.8014 C.ar 0 **** 0
110 C 12.7066 -0.0603005 15.5716 C.ar 0 **** 0
111 C 11.9966 -0.0603005 16.8014 C.ar 0 **** 0
112 C 9.86661 -0.0603005 15.5716 C.ar 0 **** 0
113 C 10.5766 -0.0603005 14.3419 C.ar 0 **** 0
114 C 12.7066 -0.0603005 13.1121 C.ar 0 **** 0
115 C 11.9966 -0.0603005 14.3419 C.ar 0 **** 0
116 C 9.86661 -0.0603005 13.1121 C.ar 0 **** 0
117 C 10.5766 -0.0603005 11.8824 C.ar 0 **** 0
118 C 12.7066 -0.0603005 10.6526 C.ar 0 **** 0
119 C 11.9966 -0.0603005 11.8824 C.ar 0 **** 0
120 C 9.86661 -0.0603005 10.6526 C.ar 0 **** 0
121 C 10.5766 -0.0603005 9.42285 C.ar 0 **** 0
122 C 12.7066 -0.0603005 8.1931 C.ar 0 **** 0
123 C 11.9966 -0.0603005 9.42285 C.ar 0 **** 0
124 C 9.86661 -0.0603005 8.1931 C.ar 0 **** 0
125 C 10.5766 -0.0603005 6.96335 C.ar 0 **** 0
126 C 12.7066 -0.0603005 5.73359 C.ar 0 **** 0
127 C 11.9966 -0.0603005 6.96335 C.ar 0 **** 0
128 C 9.86661 -0.0603005 5.73359 C.ar 0 **** 0
129 C 10.5766 -0.0603005 4.50384 C.ar 0 **** 0
130 C 12.7066 -0.0603005 3.27409 C.ar 0 **** 0
131 C 11.9966 -0.0603005 4.50384 C.ar 0 **** 0
132 C 9.86661 -0.0603005 3.27409 C.ar 0 **** 0
133 C 2.05662 -0.0603005 2.04433 C.ar 0 **** 0
134 C 3.47662 -0.0603005 2.04433 C.ar 0 **** 0
135 C 6.31662 -0.0603005 2.04433 C.ar 0 **** 0
136 C 7.73661 -0.0603005 2.04433 C.ar 0 **** 0
137 C 10.5766 -0.0603005 2.04433 C.ar 0 **** 0
138 C 11.9966 -0.0603005 2.04433 C.ar 0 **** 0
@<TRIPOS>BOND
1 1 3 am
2 1 4 am
3 2 48 am
4 2 3 am
5 2 7 am
6 5 4 am
7 5 7 am
8 5 8 am
9 6 52 am
10 6 7 am
11 6 11 am
12 9 8 am
13 9 11 am
14 9 12 am
15 10 56 am
16 10 11 am
17 10 15 am
18 13 12 am
19 13 15 am
20 13 16 am
21 14 60 am
22 14 15 am
23 14 19 am
24 17 16 am
25 17 19 am
26 17 20 am
27 18 64 am
28 18 19 am
29 18 23 am
30 21 20 am
31 21 23 am
32 21 24 am
33 22 68 am
34 22 23 am
35 22 27 am
36 25 24 am
37 25 27 am
38 25 28 am
39 26 72 am
40 26 27 am
41 26 31 am
42 29 28 am
43 29 31 am
44 29 32 am
45 30 76 am
46 30 31 am
47 30 35 am
48 33 32 am
49 33 35 am
50 33 36 am
51 34 80 am
52 34 35 am
53 34 39 am
54 37 36 am
55 37 39 am
56 37 40 am
57 38 84 am
58 38 39 am
59 38 43 am
60 41 40 am
61 41 43 am
62 41 44 am
63 42 88 am
64 42 43 am
65 42 134 am
66 133 44 am
67 45 47 am
68 45 48 am
69 46 92 am
70 46 47 am
71 46 51 am
72 49 48 am
73 49 51 am
74 49 52 am
75 50 96 am
76 50 51 am
77 50 55 am
78 53 52 am
79 53 55 am
80 53 56 am
81 54 100 am
82 54 55 am
83 54 59 am
84 57 56 am
85 57 59 am
86 57 60 am
87 58 104 am
88 58 59 am
89 58 63 am
90 61 60 am
91 61 63 am
92 61 64 am
93 62 108 am
94 62 63 am
95 62 67 am
96 65 64 am
97 65 67 am
98 65 68 am
99 66 112 am
100 66 67 am
101 66 71 am
102 69 68 am
103 69 71 am
104 69 72 am
105 70 116 am
106 70 71 am
107 70 75 am
108 73 72 am
109 73 75 am
110 73 76 am
111 74 120 am
112 74 75 am
113 74 79 am
114 77 76 am
115 77 79 am
116 77 80 am
117 78 124 am
118 78 79 am
119 78 83 am
120 81 80 am
121 81 83 am
122 81 84 am
123 82 128 am
124 82 83 am
125 82 87 am
126 85 84 am
127 85 87 am
128 85 88 am
129 86 132 am
130 86 87 am
131 86 136 am
132 135 88 am
133 89 91 am
134 89 92 am
135 90 91 am
136 90 95 am
137 93 92 am
138 93 95 am
139 93 96 am
140 94 95 am
141 94 99 am
142 97 96 am
143 97 99 am
144 97 100 am
145 98 99 am
146 98 103 am
147 101 100 am
148 101 103 am
149 101 104 am
150 102 103 am
151 102 107 am
152 105 104 am
153 105 107 am
154 105 108 am
155 106 107 am
156 106 111 am
157 109 108 am
158 109 111 am
159 109 112 am
160 110 111 am
161 110 115 am
162 113 112 am
163 113 115 am
164 113 116 am
165 114 115 am
166 114 119 am
167 117 116 am
168 117 119 am
169 117 120 am
170 118 119 am
171 118 123 am
172 121 120 am
173 121 123 am
174 121 124 am
175 122 123 am
176 122 127 am
177 125 124 am
178 125 127 am
179 125 128 am
180 126 127 am
181 126 131 am
182 129 128 am
183 129 131 am
184 129 132 am
185 130 131 am
186 130 138 am
187 137 132 am
188 133 134 am
189 135 136 am
190 137 138 am
